18
charge=0=multiplicity=1
 C      -0.0219289296    1.528322794    0.044393621
 C      1.4078990992    2.0854253253    -0.0142873274
 C      2.1641232938    1.5644540431    -1.2454269394
 C      2.1568342392    0.0295174709    -1.301591782
 C      0.7270053072    -0.5275859521    -1.2429114035
 C      -0.0292185328    -0.0066166388    -0.0117729922
 H      -0.5294077315    1.8780328268    0.950563698
 H      -0.5975353245    1.9226118166    -0.8050583731
 H      1.3889537624    3.1811348794    -0.0147735462
 H      1.9487510146    1.7848224481    0.8942177587
 H      1.6886260888    1.9602405623    -2.1540163951
 H      3.1934974459    1.9404479693    -1.2464209565
 H      2.6643128268    -0.3202010834    -2.2077592668
 H      2.7324383605    -0.364771928    -0.4521376345
 H      0.1861546946    -0.2269832513    -2.1514169166
 H      0.7459513455    -1.6232953665    -1.242425558
 H      0.4462760281    -0.4024023226    0.8968173806
 H      -1.0585950982    -0.3826035931    -0.0107827772
