14
charge=0=multiplicity=1
 C      -0.0300762365    1.5580491185    0.0298077353
 C      0.0070727666    0.0283487713    -0.0071252863
 C      0.7132079171    -0.529893401    -1.2476558065
 C      0.7503689539    -2.0595936566    -1.2845895682
 H      0.9819532966    1.9784511298    0.0280079667
 H      -0.5558243303    1.9621234331    -0.8427015713
 H      -0.5408376162    1.9269275491    0.9249369686
 H      0.5092867188    -0.3490904869    0.893613189
 H      -1.0173348095    -0.3654229859    0.0320739321
 H      0.2109894814    -0.1524576993    -2.1483930207
 H      1.7376133058    -0.1361162467    -1.2868567224
 H      1.2761685378    -2.4636641007    -0.4121098024
 H      -0.2616569942    -2.4800044697    -1.2827355161
 H      1.2610849089    -2.4284644351    -2.1797480278
